/*--------------------------------*- C++ -*----------------------------------*\
| =========                 |                                                 |
| \\      /  F ield         | OpenFOAM: The Open Source CFD Toolbox           |
|  \\    /   O p e n        | Version: compatible with any OpenFOAM version   |
|   \\  /    A nd           |                                                 |
|    \\/     M esh          |                                                 |
\*---------------------------------------------------------------------------*/

FoamFile
{
    version     2.0;
    format      ascii;
    class       volScalarField;
    location    "0";
    object      p;
}

dimensions      [0 2 -2 0 0 0 0]; // Pa

internalField   uniform 0;

boundaryField
{
    inlet
    {
        type            zeroGradient;
    }

    outlet
    {
        type            fixedValue;
        value           uniform 0;
    }

    wall
    {
        type            zeroGradient;
    }

    axis
    {
        type            symmetryPlane;
    }

    frontAndBack
    {
        type            empty;
    }
}
